omf/data/Model/public/Demo voltageDrop ABEC Columbia/main.2014-07-25-11-36-09.glm
clock {
	timezone PST+8PDT;
	starttime '2000-01-01 00:00:00';
	stoptime '2000-01-02 00:00:00';
};

#set minimum_timestep=60;
#set profiler=1;
#set relax_naming_rules=1;
module generators;
module tape;
module climate;
module residential {
	implicit_enduses NONE;
};

module powerflow {
	solver_method NR;
	NR_iteration_limit 50;
};

object node {
	phases ABCN;
	name FRIENDSHIP;
	bustype SWING;
	nominal_voltage 7200.0;
};

object underground_line {
	phases ACBN;
	from FRIENDSHIP;
	name 958175;
	to nodeRFRN1-R0001x1958175;
	length 24;
	configuration 924103line_configuration196601;
};

object fuse {
	phases ACB;
	from nodeRFRN1-R0001x1958175;
	name RFRN1-R0001x1;
	current_limit 9999.0 A;
	to node958178RFRN1-R0001x1;
};

object underground_line {
	phases ACB;
	from node958178RFRN1-R0001x1;
	name 958178;
	to node958179958178;
	length 780;
	configuration 924103line_configuration196601;
};

object underground_line {
	phases ACB;
	from node958179958178;
	name 958179;
	to node978201958179;
	length 860;
	configuration 924103line_configuration196601;
};

object underground_line {
	phases B;
	from node978201958179;
	name 978201;
	to nodeF28648x1978201;
	length 26;
	configuration 924103line_configuration196601;
};

object fuse {
	phases B;
	from nodeF28648x1978201;
	name F28648x1;
	current_limit 9999.0 A;
	to node978188F28648x1;
};

object underground_line {
	phases B;
	from node978188F28648x1;
	name 978188;
	to nodeT28649978188;
	length 238;
	configuration 924103line_configuration196601;
};

object transformer {
	phases BS;
	from nodeT28649978188;
	name T28649;
	to nodeS1706-04-005T28649;
	configuration T10633transformer_configuration360401;
};

object triplex_node {
	phases BS;
	power_12 100;
	name S1706-04-005;
	parent nodeS1706-04-005T28649;
	nominal_voltage 120;
};

object underground_line {
	phases ACB;
	from node978201958179;
	name 978195;
	to node978172978195;
	length 1970;
	configuration 924103line_configuration196601;
};

object underground_line {
	phases ACB;
	from node978172978195;
	name 978172;
	to node978204978172;
	length 780;
	configuration 924103line_configuration196601;
};

object underground_line {
	phases ACB;
	from node978204978172;
	name 978204;
	to node978186978204;
	length 66;
	configuration 924103line_configuration196601;
};

object overhead_line {
	phases ACBN;
	from node978186978204;
	name 978186;
	to node1806-33-094978186;
	length 270;
	configuration 978187line_configuration5001;
};

object transformer {
	phases CS;
	from node1806-33-094978186;
	name 1806-33-094;
	to nodeS1806-33-0701806-33-094;
	configuration T10633transformer_configuration360401;
};

object triplex_node {
	phases CS;
	power_12 1902.11;
	name S1806-33-070;
	parent nodeS1806-33-0701806-33-094;
	nominal_voltage 120;
};

object triplex_node {
	phases CS;
	power_12 1398.38;
	name S1806-32-140;
	parent nodeS1806-33-0701806-33-094;
	nominal_voltage 120;
};

object overhead_line {
	phases ACBN;
	from node1806-33-094978186;
	name 978169;
	to node978214978169;
	length 230;
	configuration 978187line_configuration5001;
};

object underground_line {
	phases AN;
	from node978214978169;
	name 978214;
	to nodeF28654x1978214;
	length 10;
	configuration 924103line_configuration196601;
};

object fuse {
	phases A;
	from nodeF28654x1978214;
	name F28654x1;
	current_limit 9999.0 A;
	to node978199F28654x1;
};

object underground_line {
	phases A;
	from node978199F28654x1;
	name 978199;
	to nodeT28655978199;
	length 135;
	configuration 924103line_configuration196601;
};

object transformer {
	phases AS;
	from nodeT28655978199;
	name T28655;
	to nodeS1806-32-127T28655;
	configuration T10633transformer_configuration360401;
};

object triplex_node {
	phases AS;
	power_12 100;
	name S1806-32-127;
	parent nodeS1806-32-127T28655;
	nominal_voltage 120;
};

object overhead_line {
	phases ACBN;
	from node978214978169;
	name 978180;
	to node978184978180;
	length 180;
	configuration 978187line_configuration5001;
};

object overhead_line {
	phases ACBN;
	from node978184978180;
	name 978184;
	to node1806-33-097978184;
	length 188;
	configuration 978187line_configuration5001;
};

object transformer {
	phases BS;
	from node1806-33-097978184;
	name 1806-33-097;
	to nodeS1806-33-0711806-33-097;
	configuration T10633transformer_configuration360401;
};

object triplex_node {
	phases BS;
	power_12 100;
	name S1806-33-071;
	parent nodeS1806-33-0711806-33-097;
	nominal_voltage 120;
};

object triplex_node {
	phases BS;
	power_12 100;
	name S1806-32-038;
	parent nodeS1806-33-0711806-33-097;
	nominal_voltage 120;
};

object overhead_line {
	phases ACBN;
	from node1806-33-097978184;
	name 978198;
	to node1806-33-098978198;
	length 297;
	configuration 978187line_configuration5001;
};

object transformer {
	phases BS;
	from node1806-33-098978198;
	name 1806-33-098;
	to nodeS1806-32-1321806-33-098;
	configuration T10633transformer_configuration360401;
};

object triplex_node {
	phases BS;
	power_12 100;
	name S1806-32-132;
	parent nodeS1806-32-1321806-33-098;
	nominal_voltage 120;
};

object triplex_node {
	phases BS;
	power_12 100;
	name S1806-32-033;
	parent nodeS1806-32-1321806-33-098;
	nominal_voltage 120;
};

object overhead_line {
	phases ACBN;
	from node1806-33-098978198;
	name 978173;
	to node978185978173;
	length 225;
	configuration 978187line_configuration5001;
};

object overhead_line {
	phases ACBN;
	from node978185978173;
	name 978185;
	to node978190978185;
	length 225;
	configuration 978187line_configuration5001;
};

object overhead_line_conductor {
	geometric_mean_radius 0.0304;
	resistance 0.216;
	name 978190line_configuration3401overhead_line_conductor3404;
};

object overhead_line {
	phases ACBN;
	from node978190978185;
	name 978190;
	to node978196978190;
	length 225;
	configuration 978187line_configuration5001;
};

object overhead_line {
	phases ACBN;
	from node978196978190;
	name 978196;
	to node978178978196;
	length 225;
	configuration 978187line_configuration5001;
};

object overhead_line {
	phases ACBN;
	from node978178978196;
	name 978178;
	to node1806-33-103978178;
	length 280;
	configuration 978187line_configuration5001;
};

object transformer {
	phases CS;
	from node1806-33-103978178;
	name 1806-33-103;
	to nodeS1806-33-0521806-33-103;
	configuration T10633transformer_configuration360401;
};

object triplex_node {
	phases CS;
	power_12 3172.13;
	name S1806-33-052;
	parent nodeS1806-33-0521806-33-103;
	nominal_voltage 120;
};

object overhead_line {
	phases ACBN;
	from node1806-33-103978178;
	name 978171;
	to node978175978171;
	length 250;
	configuration 978187line_configuration5001;
};

object overhead_line {
	phases ACBN;
	from node978175978171;
	name 978175;
	to node978181978175;
	length 225;
	configuration 978187line_configuration5001;
};

object overhead_line {
	phases ACBN;
	from node978181978175;
	name 978181;
	to node978197978181;
	length 225;
	configuration 978187line_configuration5001;
};

object overhead_line {
	phases ACBN;
	from node978197978181;
	name 978197;
	to node978233978197;
	length 225;
	configuration 978187line_configuration5001;
};

object underground_line {
	phases ACBN;
	from node978233978197;
	name 978233;
	to node28656x1-A978233;
	length 60;
	configuration 924103line_configuration196601;
};

object overhead_line {
	phases ACBN;
	from node978233978197;
	name 978176;
	to node978189978176;
	length 203;
	configuration 978187line_configuration5001;
};

object overhead_line {
	phases ACBN;
	from node978189978176;
	name 978189;
	to node978202978189;
	length 203;
	configuration 978187line_configuration5001;
};

object overhead_line {
	phases ACBN;
	from node978202978189;
	name 978202;
	to node1806-28-033978202;
	length 203;
	configuration 978187line_configuration5001;
};

object transformer {
	phases BS;
	from node1806-28-033978202;
	name 1806-28-033;
	to nodeS1806-32-0011806-28-033;
	configuration T10633transformer_configuration360401;
};

object triplex_node {
	phases BS;
	power_12 100;
	name S1806-32-001;
	parent nodeS1806-32-0011806-28-033;
	nominal_voltage 120;
};

object line_configuration {
	name 978187line_configuration5001;
	spacing 840677line_configuration163801line_spacing163802;
	conductor_N 926524line_configuration302701overhead_line_conductor302705;
	conductor_A 978190line_configuration3401overhead_line_conductor3404;
	conductor_C 978190line_configuration3401overhead_line_conductor3404;
	conductor_B 978190line_configuration3401overhead_line_conductor3404;
};

object overhead_line {
	phases ACBN;
	from node1806-28-033978202;
	name 978187;
	to node979018978187;
	length 292;
	configuration 978187line_configuration5001;
};

object overhead_line {
	phases ACBN;
	from node979018978187;
	name 979018;
	to node1806-29-081979018;
	length 60;
	configuration 985207line_configuration65101;
};

object transformer {
	phases AS;
	from node1806-29-081979018;
	name 1806-29-081;
	to nodeS1806-29-0011806-29-081;
	configuration T10633transformer_configuration360401;
};

object triplex_node {
	phases AS;
	power_12 100;
	name S1806-29-001;
	parent nodeS1806-29-0011806-29-081;
	nominal_voltage 120;
};

object overhead_line {
	phases ACBN;
	from node1806-29-081979018;
	name 979019;
	to node978936979019;
	length 250;
	configuration 985207line_configuration65101;
};

object overhead_line {
	phases ACBN;
	from node978936979019;
	name 978936;
	to node978937978936;
	length 250;
	configuration 985207line_configuration65101;
};

object overhead_line {
	phases ACBN;
	from node978937978936;
	name 978937;
	to node978938978937;
	length 250;
	configuration 985207line_configuration65101;
};

object overhead_line {
	phases ACBN;
	from node978938978937;
	name 978938;
	to node978939978938;
	length 250;
	configuration 985207line_configuration65101;
};

object overhead_line {
	phases ACBN;
	from node978939978938;
	name 978939;
	to node978940978939;
	length 250;
	configuration 985207line_configuration65101;
};

object overhead_line {
	phases ACBN;
	from node978940978939;
	name 978940;
	to node979020978940;
	length 230;
	configuration 985207line_configuration65101;
};

object overhead_line {
	phases ACBN;
	from node979020978940;
	name 979020;
	to node1806-29-088979020;
	length 225;
	configuration 985207line_configuration65101;
};

object transformer {
	phases BS;
	from node1806-29-088979020;
	name 1806-29-088;
	to nodeS1806-28-0021806-29-088;
	configuration T10633transformer_configuration360401;
};

object triplex_node {
	phases BS;
	power_12 100;
	name S1806-28-002;
	parent nodeS1806-28-0021806-29-088;
	nominal_voltage 120;
};

object overhead_line {
	phases ACBN;
	from node1806-29-088979020;
	name 979022;
	to node979023979022;
	length 305;
	configuration 985207line_configuration65101;
};

object overhead_line {
	phases ACBN;
	from node979023979022;
	name 979023;
	to node979025979023;
	length 250;
	configuration 985207line_configuration65101;
};

object overhead_line {
	phases ACB;
	from node979025979023;
	name 979025;
	to node979026979025;
	length 250;
	configuration 985207line_configuration65101;
};

object underground_line {
	phases ACB;
	from node979026979025;
	name 979026;
	to node839565979026;
	length 20;
	configuration 924103line_configuration196601;
};

object underground_line {
	phases ACB;
	from node839565979026;
	name 839565;
	to node979027839565;
	length 963;
	configuration 924103line_configuration196601;
};

object overhead_line {
	phases B;
	from node979027839565;
	name 979027;
	to node841710979027;
	length 40;
	configuration 841870line_configuration32601;
};

object underground_line {
	phases B;
	from node841710979027;
	name 841710;
	to nodeF28662x1841710;
	length 10;
	configuration 924103line_configuration196601;
};

object fuse {
	phases B;
	from nodeF28662x1841710;
	name F28662x1;
	current_limit 9999.0 A;
	to node841711F28662x1;
};

object underground_line {
	phases B;
	from node841711F28662x1;
	name 841711;
	to node1806-0326841711;
	length 139;
	configuration 924103line_configuration196601;
};

object transformer {
	phases BS;
	from node1806-0326841711;
	name 1806-0326;
	to nodeS1806-29-0031806-0326;
	configuration T10633transformer_configuration360401;
};

object triplex_node {
	phases BS;
	power_12 100;
	name S1806-29-003;
	parent nodeS1806-29-0031806-0326;
	nominal_voltage 120;
};

object overhead_line {
	phases ACBN;
	from node979027839565;
	name 979021;
	to node978941979021;
	length 214;
	configuration 985207line_configuration65101;
};

object overhead_line {
	phases ACBN;
	from node978941979021;
	name 978941;
	to node979028978941;
	length 214;
	configuration 985207line_configuration65101;
};

object overhead_line {
	phases ACBN;
	from node979028978941;
	name 979028;
	to node1806-29-097979028;
	length 210;
	configuration 985207line_configuration65101;
};

object transformer {
	phases BS;
	from node1806-29-097979028;
	name 1806-29-097;
	to nodeS1806-29-0081806-29-097;
	configuration T10633transformer_configuration360401;
};

object triplex_node {
	phases BS;
	power_12 100;
	name S1806-29-008;
	parent nodeS1806-29-0081806-29-097;
	nominal_voltage 120;
};

object overhead_line {
	phases ACBN;
	from node1806-29-097979028;
	name 979029;
	to node1806-29-098979029;
	length 300;
	configuration 985207line_configuration65101;
};

object transformer {
	phases BS;
	from node1806-29-098979029;
	name 1806-29-098;
	to nodeS1806-28-0141806-29-098;
	configuration T10633transformer_configuration360401;
};

object triplex_node {
	phases BS;
	power_12 100;
	name S1806-28-014;
	parent nodeS1806-28-0141806-29-098;
	nominal_voltage 120;
};

object overhead_line {
	phases ACBN;
	from node1806-29-098979029;
	name 979030;
	to node1806-29-099979030;
	length 310;
	configuration 985207line_configuration65101;
};

object transformer {
	phases BS;
	from node1806-29-099979030;
	name 1806-29-099;
	to nodeS1806-29-0101806-29-099;
	configuration T10633transformer_configuration360401;
};

object triplex_node {
	phases BS;
	power_12 100;
	name S1806-29-010;
	parent nodeS1806-29-0101806-29-099;
	nominal_voltage 120;
};

object overhead_line {
	phases ACBN;
	from node1806-29-099979030;
	name 979031;
	to node979032979031;
	length 174;
	configuration 985207line_configuration65101;
};

object overhead_line {
	phases ACBN;
	from node979032979031;
	name 979032;
	to node979035979032;
	length 174;
	configuration 985207line_configuration65101;
};

object overhead_line {
	phases ACBN;
	from node979035979032;
	name 979035;
	to node1806-20-183979035;
	length 275;
	configuration 985207line_configuration65101;
};

object transformer {
	phases AS;
	from node1806-20-183979035;
	name 1806-20-183;
	to nodeS1806-21-0111806-20-183;
	configuration T10633transformer_configuration360401;
};

object triplex_node {
	phases AS;
	power_12 100;
	name S1806-21-011;
	parent nodeS1806-21-0111806-20-183;
	nominal_voltage 120;
};

object triplex_node {
	phases AS;
	power_12 100;
	name S1806-21-004;
	parent nodeS1806-21-0111806-20-183;
	nominal_voltage 120;
};

object overhead_line {
	phases ACBN;
	from node1806-20-183979035;
	name 979036;
	to node978942979036;
	length 213;
	configuration 985207line_configuration65101;
};

object overhead_line {
	phases ACBN;
	from node978942979036;
	name 978942;
	to node978943978942;
	length 212;
	configuration 985207line_configuration65101;
};

object overhead_line {
	phases ACBN;
	from node978943978942;
	name 978943;
	to node978944978943;
	length 212;
	configuration 985207line_configuration65101;
};

object overhead_line {
	phases ACBN;
	from node978944978943;
	name 978944;
	to node978947978944;
	length 296;
	configuration 985207line_configuration65101;
};

object overhead_line {
	phases ACBN;
	from node978947978944;
	name 978947;
	to node978948978947;
	length 170;
	configuration 985207line_configuration65101;
};

object overhead_line {
	phases ACBN;
	from node978948978947;
	name 978948;
	to node1806-20-189978948;
	length 168;
	configuration 985207line_configuration65101;
};

object transformer {
	phases BS;
	from node1806-20-189978948;
	name 1806-20-189;
	to nodeS1806-21-0201806-20-189;
	configuration T10633transformer_configuration360401;
};

object triplex_node {
	phases BS;
	power_12 100;
	name S1806-21-020;
	parent nodeS1806-21-0201806-20-189;
	nominal_voltage 120;
};

object overhead_line {
	phases ACBN;
	from node1806-20-189978948;
	name 978949;
	to node979053978949;
	length 318;
	configuration 985207line_configuration65101;
};

object underground_line {
	phases BN;
	from node979053978949;
	name 979053;
	to nodeF28665x1979053;
	length 25;
	configuration 924103line_configuration196601;
};

object fuse {
	phases B;
	from nodeF28665x1979053;
	name F28665x1;
	current_limit 9999.0 A;
	to node979054F28665x1;
};

object underground_line {
	phases B;
	from node979054F28665x1;
	name 979054;
	to node978951979054;
	length 25;
	configuration 924103line_configuration196601;
};

object underground_line {
	phases B;
	from node978951979054;
	name 978951;
	to nodeT28667978951;
	length 20;
	configuration 924103line_configuration196601;
};

object transformer {
	phases BS;
	from nodeT28667978951;
	name T28667;
	to nodeS1806-21-007T28667;
	configuration T10633transformer_configuration360401;
};

object triplex_node {
	phases BS;
	power_12 100;
	name S1806-21-007;
	parent nodeS1806-21-007T28667;
	nominal_voltage 120;
};

object underground_line {
	phases B;
	from node978951979054;
	name 841700;
	to nodeT28669841700;
	length 678;
	configuration 924103line_configuration196601;
};

object transformer {
	phases BS;
	from nodeT28669841700;
	name T28669;
	to nodeS1806-21-024T28669;
	configuration T10633transformer_configuration360401;
};

object triplex_node {
	phases BS;
	power_12 100;
	name S1806-21-024;
	parent nodeS1806-21-024T28669;
	nominal_voltage 120;
};

object triplex_node {
	phases BS;
	power_12 100;
	name S1806-21-022;
	parent nodeS1806-21-024T28669;
	nominal_voltage 120;
};

object underground_line {
	phases B;
	from node978951979054;
	name 841697;
	to nodeT28668841697;
	length 599;
	configuration 924103line_configuration196601;
};

object transformer {
	phases BS;
	from nodeT28668841697;
	name T28668;
	to nodeS1806-20-048T28668;
	configuration T10633transformer_configuration360401;
};

object triplex_node {
	phases BS;
	power_12 100;
	name S1806-20-048;
	parent nodeS1806-20-048T28668;
	nominal_voltage 120;
};

object overhead_line {
	phases ACBN;
	from node979053978949;
	name 978952;
	to node978953978952;
	length 215;
	configuration 985207line_configuration65101;
};

object overhead_line {
	phases ACBN;
	from node978953978952;
	name 978953;
	to node978954978953;
	length 215;
	configuration 985207line_configuration65101;
};

object overhead_line {
	phases ACBN;
	from node978954978953;
	name 978954;
	to node1806-20-193978954;
	length 215;
	configuration 985207line_configuration65101;
};

object transformer {
	phases BS;
	from node1806-20-193978954;
	name 1806-20-193;
	to nodeS1806-21-0051806-20-193;
	configuration T10633transformer_configuration360401;
};

object triplex_node {
	phases BS;
	power_12 100;
	name S1806-21-005;
	parent nodeS1806-21-0051806-20-193;
	nominal_voltage 120;
};

object triplex_node {
	phases BS;
	power_12 100;
	name S1806-20-002;
	parent nodeS1806-21-0051806-20-193;
	nominal_voltage 120;
};

object overhead_line {
	phases ACBN;
	from node1806-20-193978954;
	name 978955;
	to node978956978955;
	length 275;
	configuration 985207line_configuration65101;
};

object overhead_line {
	phases ACBN;
	from node978956978955;
	name 978956;
	to node978957978956;
	length 275;
	configuration 985207line_configuration65101;
};

object overhead_line {
	phases ACBN;
	from node978957978956;
	name 978957;
	to node978958978957;
	length 275;
	configuration 985207line_configuration65101;
};

object overhead_line {
	phases ACBN;
	from node978958978957;
	name 978958;
	to node978959978958;
	length 241;
	configuration 985207line_configuration65101;
};

object overhead_line {
	phases ACBN;
	from node978959978958;
	name 978959;
	to node978960978959;
	length 241;
	configuration 985207line_configuration65101;
};

object overhead_line {
	phases ACBN;
	from node978960978959;
	name 978960;
	to node978963978960;
	length 240;
	configuration 985207line_configuration65101;
};

object overhead_line {
	phases ACBN;
	from node978963978960;
	name 978963;
	to node978965978963;
	length 141;
	configuration 985207line_configuration65101;
};

object overhead_line {
	phases ACBN;
	from node978965978963;
	name 978965;
	to node978966978965;
	length 247;
	configuration 985207line_configuration65101;
};

object overhead_line {
	phases ACBN;
	from node978966978965;
	name 978966;
	to node978967978966;
	length 247;
	configuration 985207line_configuration65101;
};

object overhead_line {
	phases ACBN;
	from node978967978966;
	name 978967;
	to node978968978967;
	length 269;
	configuration 985207line_configuration65101;
};

object overhead_line {
	phases ACBN;
	from node978968978967;
	name 978968;
	to node978970978968;
	length 275;
	configuration 985207line_configuration65101;
};

object overhead_line {
	phases ACBN;
	from node978970978968;
	name 978970;
	to node979057978970;
	length 267;
	configuration 985207line_configuration65101;
};

object underground_line {
	phases BN;
	from node979057978970;
	name 979057;
	to nodeR6914x1979057;
	length 45;
	configuration 924103line_configuration196601;
};

object fuse {
	phases B;
	from nodeR6914x1979057;
	name R6914x1;
	current_limit 9999.0 A;
	to node978971R6914x1;
};

object underground_line {
	phases B;
	from node978971R6914x1;
	name 978971;
	to node921593978971;
	length 45;
	configuration 924103line_configuration196601;
};

object underground_line {
	phases B;
	from node921593978971;
	name 921593;
	to node921816921593;
	length 1504;
	configuration 924103line_configuration196601;
};

object underground_line {
	phases B;
	from node921816921593;
	name 921816;
	to node921817921816;
	length 1354;
	configuration 924103line_configuration196601;
};

object underground_line {
	phases B;
	from node921817921816;
	name 921817;
	to nodeT10196921817;
	length 226;
	configuration 924103line_configuration196601;
};

object transformer {
	phases BS;
	from nodeT10196921817;
	name T10196;
	to nodeS1806-16-004T10196;
	configuration T10633transformer_configuration360401;
};

object triplex_node {
	phases BS;
	power_12 100;
	name S1806-16-004;
	parent nodeS1806-16-004T10196;
	nominal_voltage 120;
};

object underground_line {
	phases B;
	from node921817921816;
	name 839719;
	to node924106839719;
	length 1116;
	configuration 924103line_configuration196601;
};

object underground_line {
	phases B;
	from node924106839719;
	name 924106;
	to nodeT12137924106;
	length 1740;
	configuration 924103line_configuration196601;
};

object transformer {
	phases BS;
	from nodeT12137924106;
	name T12137;
	to nodeS1806-16-013T12137;
	configuration T10633transformer_configuration360401;
};

object triplex_node {
	phases BS;
	power_12 100;
	name S1806-16-013;
	parent nodeS1806-16-013T12137;
	nominal_voltage 120;
};

object underground_line {
	phases B;
	from node924106839719;
	name 917611;
	to node917613917611;
	length 1412;
	configuration 924103line_configuration196601;
};

object underground_line {
	phases B;
	from node917613917611;
	name 917613;
	to node930182917613;
	length 346;
	configuration 924103line_configuration196601;
};

object underground_line {
	phases B;
	from node930182917613;
	name 930182;
	to node931498930182;
	length 1015;
	configuration 924103line_configuration196601;
};

object underground_line {
	phases B;
	from node931498930182;
	name 931498;
	to nodeT14068931498;
	length 364;
	configuration 924103line_configuration196601;
};

object transformer {
	phases BS;
	from nodeT14068931498;
	name T14068;
	to nodeS1806-22-047T14068;
	configuration T10633transformer_configuration360401;
};

object triplex_node {
	phases BS;
	power_12 100;
	name S1806-22-047;
	parent nodeS1806-22-047T14068;
	nominal_voltage 120;
};

object underground_line {
	phases B;
	from node930182917613;
	name 929367;
	to node929369929367;
	length 510;
	configuration 924103line_configuration196601;
};

object underground_line {
	phases B;
	from node929369929367;
	name 929369;
	to node929370929369;
	length 225;
	configuration 924103line_configuration196601;
};

object underground_line {
	phases B;
	from node929370929369;
	name 929370;
	to node929374929370;
	length 725;
	configuration 924103line_configuration196601;
};

object underground_line {
	phases B;
	from node929374929370;
	name 929374;
	to node841970929374;
	length 30;
	configuration 924103line_configuration196601;
};

object overhead_line {
	phases BN;
	from node841970929374;
	name 841970;
	to node1806-22-025841970;
	length 295;
	configuration 841870line_configuration32601;
};

object transformer {
	phases BS;
	from node1806-22-025841970;
	name 1806-22-025;
	to nodeS1806-22-0181806-22-025;
	configuration T10633transformer_configuration360401;
};

object triplex_node {
	phases BS;
	power_12 100;
	name S1806-22-018;
	parent nodeS1806-22-0181806-22-025;
	nominal_voltage 120;
};

object triplex_node {
	phases BS;
	power_12 100;
	name S1806-22-012;
	parent nodeS1806-22-0181806-22-025;
	nominal_voltage 120;
};

object overhead_line {
	phases BN;
	from node1806-22-025841970;
	name 921565;
	to node1806-22-031921565;
	length 175;
	configuration 841870line_configuration32601;
};

object transformer {
	phases BS;
	from node1806-22-031921565;
	name 1806-22-031;
	to nodeS1806-22-0161806-22-031;
	configuration T10633transformer_configuration360401;
};

object triplex_node {
	phases BS;
	power_12 100;
	name S1806-22-016;
	parent nodeS1806-22-0161806-22-031;
	nominal_voltage 120;
};

object overhead_line {
	phases BN;
	from node1806-22-031921565;
	name 841966;
	to node1806-22-024841966;
	length 283;
	configuration 841870line_configuration32601;
};

object transformer {
	phases BS;
	from node1806-22-024841966;
	name 1806-22-024;
	to nodeS1806-22-0051806-22-024;
	configuration T10633transformer_configuration360401;
};

object triplex_node {
	phases BS;
	power_12 100;
	name S1806-22-005;
	parent nodeS1806-22-0051806-22-024;
	nominal_voltage 120;
};

object overhead_line {
	phases BN;
	from node1806-22-024841966;
	name 921568;
	to node1806-22-032921568;
	length 283;
	configuration 841870line_configuration32601;
};

object transformer {
	phases BS;
	from node1806-22-032921568;
	name 1806-22-032;
	to nodeS1806-22-0091806-22-032;
	configuration T10633transformer_configuration360401;
};

object triplex_node {
	phases BS;
	power_12 100;
	name S1806-22-009;
	parent nodeS1806-22-0091806-22-032;
	nominal_voltage 120;
};

object overhead_line {
	phases BN;
	from node1806-22-032921568;
	name 917662;
	to node1806-22-028917662;
	length 153;
	configuration 841870line_configuration32601;
};

object transformer {
	phases BS;
	from node1806-22-028917662;
	name 1806-22-028;
	to nodeS1806-22-0461806-22-028;
	configuration T10633transformer_configuration360401;
};

object triplex_node {
	phases BS;
	power_12 100;
	name S1806-22-046;
	parent nodeS1806-22-0461806-22-028;
	nominal_voltage 120;
};

object overhead_line {
	phases BN;
	from node1806-22-028917662;
	name 921570;
	to node1806-22-033921570;
	length 137;
	configuration 841870line_configuration32601;
};

object transformer {
	phases BS;
	from node1806-22-033921570;
	name 1806-22-033;
	to nodeS1806-22-0031806-22-033;
	configuration T10633transformer_configuration360401;
};

object triplex_node {
	phases BS;
	power_12 100;
	name S1806-22-003;
	parent nodeS1806-22-0031806-22-033;
	nominal_voltage 120;
};

object overhead_line {
	phases BN;
	from node1806-22-033921570;
	name 841964;
	to node1806-22-023841964;
	length 127;
	configuration 841870line_configuration32601;
};

object transformer {
	phases BS;
	from node1806-22-023841964;
	name 1806-22-023;
	to nodeS1806-22-0431806-22-023;
	configuration T10633transformer_configuration360401;
};

object triplex_node {
	phases BS;
	power_12 100;
	name S1806-22-043;
	parent nodeS1806-22-0431806-22-023;
	nominal_voltage 120;
};

object triplex_node {
	phases BS;
	power_12 100;
	name S1806-22-002;
	parent nodeS1806-22-0431806-22-023;
	nominal_voltage 120;
};

object overhead_line {
	phases BN;
	from node1806-22-023841964;
	name 841959;
	to node1806-22-022841959;
	length 344;
	configuration 841870line_configuration32601;
};

object transformer {
	phases BS;
	from node1806-22-022841959;
	name 1806-22-022;
	to nodeS1806-22-0041806-22-022;
	configuration T10633transformer_configuration360401;
};

object triplex_node {
	phases BS;
	power_12 100;
	name S1806-22-004;
	parent nodeS1806-22-0041806-22-022;
	nominal_voltage 120;
};

object underground_line {
	phases BN;
	from node1806-22-022841959;
	name 841956;
	to nodeF21666x1841956;
	length 77;
	configuration 924103line_configuration196601;
};

object fuse {
	phases B;
	from nodeF21666x1841956;
	name F21666x1;
	current_limit 9999.0 A;
	to node841957F21666x1;
};

object underground_line {
	phases B;
	from node841957F21666x1;
	name 841957;
	to nodeT18699841957;
	length 1058;
	configuration 924103line_configuration196601;
};

object transformer {
	phases BS;
	from nodeT18699841957;
	name T18699;
	to nodeS1806-21-015T18699;
	configuration T10633transformer_configuration360401;
};

object triplex_node {
	phases BS;
	power_12 100;
	name S1806-21-015;
	parent nodeS1806-21-015T18699;
	nominal_voltage 120;
};

object overhead_line {
	phases BN;
	from node1806-22-022841959;
	name 841955;
	to node1806-22-021841955;
	length 191;
	configuration 841870line_configuration32601;
};

object transformer {
	phases BS;
	from node1806-22-021841955;
	name 1806-22-021;
	to nodeS1806-22-0271806-22-021;
	configuration T10633transformer_configuration360401;
};

object triplex_node {
	phases BS;
	power_12 100;
	name S1806-22-027;
	parent nodeS1806-22-0271806-22-021;
	nominal_voltage 120;
};

object overhead_line {
	phases BN;
	from node1806-22-021841955;
	name 841953;
	to node1806-22-020841953;
	length 253;
	configuration 841870line_configuration32601;
};

object transformer {
	phases BS;
	from node1806-22-020841953;
	name 1806-22-020;
	to nodeS1806-22-0251806-22-020;
	configuration T10633transformer_configuration360401;
};

object triplex_node {
	phases BS;
	power_12 100;
	name S1806-22-025;
	parent nodeS1806-22-0251806-22-020;
	nominal_voltage 120;
};

object overhead_line {
	phases BN;
	from node1806-22-020841953;
	name 841951;
	to node1806-22-019841951;
	length 482;
	configuration 841870line_configuration32601;
};

object transformer {
	phases BS;
	from node1806-22-019841951;
	name 1806-22-019;
	to nodeS1806-22-0131806-22-019;
	configuration T10633transformer_configuration360401;
};

object triplex_node {
	phases BS;
	power_12 100;
	name S1806-22-013;
	parent nodeS1806-22-0131806-22-019;
	nominal_voltage 120;
};

object overhead_line {
	phases BN;
	from node1806-22-019841951;
	name 841949;
	to node841947841949;
	length 516;
	configuration 841870line_configuration32601;
};

object overhead_line {
	phases BN;
	from node841947841949;
	name 841947;
	to node1806-22-017841947;
	length 687;
	configuration 841870line_configuration32601;
};

object overhead_line {
	phases BN;
	from node1806-22-017841947;
	name 841945;
	to node1806-22-016841945;
	length 457;
	configuration 841870line_configuration32601;
};

object transformer {
	phases BS;
	from node1806-22-016841945;
	name 1806-22-016;
	to nodeS1806-22-0101806-22-016;
	configuration T10633transformer_configuration360401;
};

object triplex_node {
	phases BS;
	power_12 100;
	name S1806-22-010;
	parent nodeS1806-22-0101806-22-016;
	nominal_voltage 120;
};

object overhead_line {
	phases BN;
	from node1806-22-016841945;
	name 841943;
	to node1806-22-015841943;
	length 683;
	configuration 841870line_configuration32601;
};

object transformer {
	phases BS;
	from node1806-22-015841943;
	name 1806-22-015;
	to nodeS1806-22-0011806-22-015;
	configuration T10633transformer_configuration360401;
};

object triplex_node {
	phases BS;
	power_12 100;
	name S1806-22-001;
	parent nodeS1806-22-0011806-22-015;
	nominal_voltage 120;
};

object overhead_line {
	phases BN;
	from node1806-22-015841943;
	name 841941;
	to node841901841941;
	length 266;
	configuration 841870line_configuration32601;
};

object overhead_line {
	phases BN;
	from node841901841941;
	name 841901;
	to node1806-22-004841901;
	length 295;
	configuration 841870line_configuration32601;
};

object transformer {
	phases BS;
	from node1806-22-004841901;
	name 1806-22-004;
	to nodeS1806-22-0451806-22-004;
	configuration T10633transformer_configuration360401;
};

object triplex_node {
	phases BS;
	power_12 100;
	name S1806-22-045;
	parent nodeS1806-22-0451806-22-004;
	nominal_voltage 120;
};

object overhead_line {
	phases BN;
	from node1806-22-004841901;
	name 841902;
	to node1806-22-003841902;
	length 10;
	configuration 841870line_configuration32601;
};

object transformer {
	phases BS;
	from node1806-22-003841902;
	name 1806-22-003;
	to nodeS1806-22-0191806-22-003;
	configuration T10633transformer_configuration360401;
};

object triplex_node {
	phases BS;
	power_12 100;
	name S1806-22-019;
	parent nodeS1806-22-0191806-22-003;
	nominal_voltage 120;
};

object overhead_line {
	phases BN;
	from node1806-22-003841902;
	name 841904;
	to node1806-22-005841904;
	length 205;
	configuration 841870line_configuration32601;
};

object transformer {
	phases BS;
	from node1806-22-005841904;
	name 1806-22-005;
	to nodeS1806-22-0071806-22-005;
	configuration T10633transformer_configuration360401;
};

object triplex_node {
	phases BS;
	power_12 100;
	name S1806-22-007;
	parent nodeS1806-22-0071806-22-005;
	nominal_voltage 120;
};

object overhead_line {
	phases BN;
	from node1806-22-005841904;
	name 841906;
	to node1806-22-006841906;
	length 220;
	configuration 841870line_configuration32601;
};

object transformer {
	phases BS;
	from node1806-22-006841906;
	name 1806-22-006;
	to nodeS1806-22-0391806-22-006;
	configuration T10633transformer_configuration360401;
};

object triplex_node {
	phases BS;
	power_12 100;
	name S1806-22-039;
	parent nodeS1806-22-0391806-22-006;
	nominal_voltage 120;
};

object triplex_node {
	phases BS;
	power_12 100;
	name S1806-22-030;
	parent nodeS1806-22-0391806-22-006;
	nominal_voltage 120;
};

object overhead_line_conductor {
	geometric_mean_radius 0.00437;
	resistance 2.57;
	name 841909line_configuration21601overhead_line_conductor21604;
};

object overhead_line {
	phases BN;
	from node1806-22-006841906;
	name 841909;
	to node1806-22-007841909;
	length 195;
	configuration 841870line_configuration32601;
};

object transformer {
	phases BS;
	from node1806-22-007841909;
	name 1806-22-007;
	to nodeS1806-22-0331806-22-007;
	configuration T10633transformer_configuration360401;
};

object triplex_node {
	phases BS;
	power_12 100;
	name S1806-22-033;
	parent nodeS1806-22-0331806-22-007;
	nominal_voltage 120;
};

object overhead_line {
	phases BN;
	from node1806-22-007841909;
	name 939875;
	to node841913939875;
	length 17;
	configuration 841870line_configuration32601;
};

object overhead_line {
	phases BN;
	from node841913939875;
	name 841913;
	to node1806-22-009841913;
	length 165;
	configuration 841870line_configuration32601;
};

object transformer {
	phases BS;
	from node1806-22-009841913;
	name 1806-22-009;
	to nodeS1806-22-0241806-22-009;
	configuration T10633transformer_configuration360401;
};

object triplex_node {
	phases BS;
	power_12 100;
	name S1806-22-024;
	parent nodeS1806-22-0241806-22-009;
	nominal_voltage 120;
};

object overhead_line {
	phases BN;
	from node1806-22-009841913;
	name 841915;
	to node1806-22-010841915;
	length 136;
	configuration 841870line_configuration32601;
};

object transformer {
	phases BS;
	from node1806-22-010841915;
	name 1806-22-010;
	to nodeS1806-22-0321806-22-010;
	configuration T10633transformer_configuration360401;
};

object triplex_node {
	phases BS;
	power_12 100;
	name S1806-22-032;
	parent nodeS1806-22-0321806-22-010;
	nominal_voltage 120;
};

object triplex_node {
	phases BS;
	power_12 100;
	name S1806-22-011;
	parent nodeS1806-22-0321806-22-010;
	nominal_voltage 120;
};

object underground_line {
	phases BN;
	from node1806-22-010841915;
	name 841934;
	to nodeFFRN1-F082x1841934;
	length 18;
	configuration 924103line_configuration196601;
};

object fuse {
	phases B;
	from nodeFFRN1-F082x1841934;
	name FFRN1-F082x1;
	current_limit 9999.0 A;
	to node841935FFRN1-F082x1;
};

object underground_line {
	phases B;
	from node841935FFRN1-F082x1;
	name 841935;
	to node1806-0223841935;
	length 365;
	configuration 924103line_configuration196601;
};

object overhead_line {
	phases BN;
	from node1806-22-010841915;
	name 841920;
	to node1806-22-012841920;
	length 335;
	configuration 841870line_configuration32601;
};

object transformer {
	phases BS;
	from node1806-22-012841920;
	name 1806-22-012;
	to nodeS1806-22-0231806-22-012;
	configuration T10633transformer_configuration360401;
};

object triplex_node {
	phases BS;
	power_12 100;
	name S1806-22-023;
	parent nodeS1806-22-0231806-22-012;
	nominal_voltage 120;
};

object triplex_node {
	phases BS;
	power_12 100;
	name S1806-22-022;
	parent nodeS1806-22-0231806-22-012;
	nominal_voltage 120;
};

object overhead_line {
	phases BN;
	from node1806-22-012841920;
	name 841923;
	to node1806-22-013841923;
	length 288;
	configuration 841870line_configuration32601;
};

object transformer {
	phases BS;
	from node1806-22-013841923;
	name 1806-22-013;
	to nodeS1806-22-0211806-22-013;
	configuration T10633transformer_configuration360401;
};

object triplex_node {
	phases BS;
	power_12 100;
	name S1806-22-021;
	parent nodeS1806-22-0211806-22-013;
	nominal_voltage 120;
};

object overhead_line {
	phases BN;
	from node1806-22-013841923;
	name 841926;
	to node1806-22-014841926;
	length 253;
	configuration 841870line_configuration32601;
};

object transformer {
	phases BS;
	from node1806-22-014841926;
	name 1806-22-014;
	to nodeS1806-22-0361806-22-014;
	configuration 1906-20-019transformer_configuration129701;
};

object triplex_node {
	phases BS;
	power_12 100;
	name S1806-22-036;
	parent nodeS1806-22-0361806-22-014;
	nominal_voltage 120;
};

object overhead_line {
	phases BN;
	from node1806-22-014841926;
	name 841929;
	to nodeFFRN1-F070x1841929;
	length 66;
	configuration 841870line_configuration32601;
};

object fuse {
	phases B;
	from nodeFFRN1-F070x1841929;
	name FFRN1-F070x1;
	current_limit 9999.0 A;
	to node841930FFRN1-F070x1;
};

object underground_line {
	phases B;
	from node841930FFRN1-F070x1;
	name 841930;
	to node1806-0201841930;
	length 260;
	configuration 924103line_configuration196601;
};

object transformer {
	phases BS;
	from node1806-0201841930;
	name 1806-0201;
	to nodeS1806-22-0401806-0201;
	configuration T10633transformer_configuration360401;
};

object triplex_node {
	phases BS;
	power_12 100;
	name S1806-22-040;
	parent nodeS1806-22-0401806-0201;
	nominal_voltage 120;
};

object underground_line {
	phases BN;
	from node1806-0201841930;
	name 841931;
	to node1806-0041841931;
	length 156;
	configuration 924103line_configuration196601;
};

object transformer {
	phases BS;
	from node1806-0041841931;
	name 1806-0041;
	to nodeS1806-22-0351806-0041;
	configuration T10633transformer_configuration360401;
};

object triplex_node {
	phases BS;
	power_12 100;
	name S1806-22-035;
	parent nodeS1806-22-0351806-0041;
	nominal_voltage 120;
};

object underground_line {
	phases BN;
	from node841913939875;
	name 841912;
	to nodeF18102x1841912;
	length 10;
	configuration 924103line_configuration196601;
};

object fuse {
	phases B;
	from nodeF18102x1841912;
	name F18102x1;
	current_limit 9999.0 A;
	to node841938F18102x1;
};

object underground_line {
	phases B;
	from node841938F18102x1;
	name 841938;
	to nodeT18103841938;
	length 142;
	configuration 924103line_configuration196601;
};

object transformer {
	phases BS;
	from nodeT18103841938;
	name T18103;
	to nodeS1806-22-031T18103;
	configuration T10633transformer_configuration360401;
};

object triplex_node {
	phases BS;
	power_12 100;
	name S1806-22-031;
	parent nodeS1806-22-031T18103;
	nominal_voltage 120;
};

object overhead_line {
	phases BN;
	from node841901841941;
	name 841900;
	to node1806-27-012841900;
	length 249;
	configuration 841870line_configuration32601;
};

object transformer {
	phases BS;
	from node1806-27-012841900;
	name 1806-27-012;
	to nodeS1806-27-0091806-27-012;
	configuration T10633transformer_configuration360401;
};

object triplex_node {
	phases BS;
	power_12 100;
	name S1806-27-009;
	parent nodeS1806-27-0091806-27-012;
	nominal_voltage 120;
};

object overhead_line {
	phases BN;
	from node1806-27-012841900;
	name 841898;
	to node1806-27-011841898;
	length 274;
	configuration 841870line_configuration32601;
};

object overhead_line {
	phases BN;
	from node1806-27-011841898;
	name 841896;
	to node841895841896;
	length 2176;
	configuration 841870line_configuration32601;
};

object overhead_line {
	phases BN;
	from node841895841896;
	name 841895;
	to node971670841895;
	length 151;
	configuration 841870line_configuration32601;
};

object overhead_line {
	phases BN;
	from node971670841895;
	name 971670;
	to node981780971670;
	length 446;
	configuration 841870line_configuration32601;
};

object overhead_line {
	phases BN;
	from node981780971670;
	name 981780;
	to node6920x1-Ax1981780;
	length 140;
	configuration 841870line_configuration32601;
};

object overhead_line {
	phases BN;
	from node981780971670;
	name 841803;
	to node1806-23-001841803;
	length 2030;
	configuration 841857line_configuration30301;
};

object transformer {
	phases BS;
	from node1806-23-001841803;
	name 1806-23-001;
	to nodeS1806-26-0021806-23-001;
	configuration T10633transformer_configuration360401;
};

object triplex_node {
	phases BS;
	power_12 100;
	name S1806-26-002;
	parent nodeS1806-26-0021806-23-001;
	nominal_voltage 120;
};

object overhead_line {
	phases BN;
	from node1806-23-001841803;
	name 841805;
	to node841806841805;
	length 115;
	configuration 841857line_configuration30301;
};

object overhead_line {
	phases BN;
	from node841806841805;
	name 841806;
	to node912718841806;
	length 719;
	configuration 841857line_configuration30301;
};

object underground_line {
	phases BN;
	from node912718841806;
	name 912718;
	to nodeR2916x1912718;
	length 23;
	configuration 924103line_configuration196601;
};

object fuse {
	phases B;
	from nodeR2916x1912718;
	name R2916x1;
	current_limit 9999.0 A;
	to node914355R2916x1;
};

object underground_line {
	phases B;
	from node914355R2916x1;
	name 914355;
	to node912719914355;
	length 70;
	configuration 924103line_configuration196601;
};

object underground_line {
	phases B;
	from node912719914355;
	name 912719;
	to node912722912719;
	length 704;
	configuration 924103line_configuration196601;
};

object underground_line {
	phases B;
	from node912722912719;
	name 912722;
	to node912723912722;
	length 1714;
	configuration 924103line_configuration196601;
};

object underground_line {
	phases B;
	from node912723912722;
	name 912723;
	to node912726912723;
	length 1798;
	configuration 924103line_configuration196601;
};

object underground_line {
	phases B;
	from node912726912723;
	name 912726;
	to node912728912726;
	length 664;
	configuration 924103line_configuration196601;
};

object underground_line {
	phases B;
	from node912728912726;
	name 912728;
	to node912729912728;
	length 870;
	configuration 924103line_configuration196601;
};

object underground_line {
	phases B;
	from node912729912728;
	name 912729;
	to node1806-14-023912729;
	length 66;
	configuration 924103line_configuration196601;
};

object transformer {
	phases BS;
	from node1806-14-023912729;
	name 1806-14-023;
	to nodeS1806-14-0051806-14-023;
	configuration T10633transformer_configuration360401;
};

object triplex_node {
	phases BS;
	power_12 100;
	name S1806-14-005;
	parent nodeS1806-14-0051806-14-023;
	nominal_voltage 120;
};

object underground_line {
	phases B;
	from node1806-14-023912729;
	name 841891;
	to node841892841891;
	length 875;
	configuration 924103line_configuration196601;
};

object underground_line {
	phases B;
	from node841892841891;
	name 841892;
	to node1806-0322841892;
	length 699;
	configuration 924103line_configuration196601;
};

object transformer {
	phases BS;
	from node1806-0322841892;
	name 1806-0322;
	to nodeS1806-14-0121806-0322;
	configuration T10633transformer_configuration360401;
};

object triplex_node {
	phases BS;
	power_12 100;
	name S1806-14-012;
	parent nodeS1806-14-0121806-0322;
	nominal_voltage 120;
};

object underground_line {
	phases B;
	from node1806-14-023912729;
	name 841885;
	to node841886841885;
	length 109;
	configuration 924103line_configuration196601;
};

object underground_line {
	phases B;
	from node841886841885;
	name 841886;
	to node841887841886;
	length 1081;
	configuration 924103line_configuration196601;
};

object underground_line {
	phases B;
	from node841887841886;
	name 841887;
	to node970366841887;
	length 1066;
	configuration 924103line_configuration196601;
};

object underground_line {
	phases B;
	from node970366841887;
	name 970366;
	to nodeT27807970366;
	length 258;
	configuration 924103line_configuration196601;
};

object transformer {
	phases BS;
	from nodeT27807970366;
	name T27807;
	to nodeS1806-14-015T27807;
	configuration T10633transformer_configuration360401;
};

object triplex_node {
	phases BS;
	power_12 100;
	name S1806-14-015;
	parent nodeS1806-14-015T27807;
	nominal_voltage 120;
};

object underground_line {
	phases B;
	from node970366841887;
	name 841888;
	to node841889841888;
	length 1101;
	configuration 924103line_configuration196601;
};

object underground_line {
	phases B;
	from node841889841888;
	name 841889;
	to node1806-0224841889;
	length 368;
	configuration 924103line_configuration196601;
};

object transformer {
	phases BS;
	from node1806-0224841889;
	name 1806-0224;
	to nodeS1806-15-0041806-0224;
	configuration T10633transformer_configuration360401;
};

object triplex_node {
	phases BS;
	power_12 100;
	name S1806-15-004;
	parent nodeS1806-15-0041806-0224;
	nominal_voltage 120;
};

object underground_line {
	phases BN;
	from node1806-0224841889;
	name 910268;
	to nodeT5057910268;
	length 430;
	configuration 924103line_configuration196601;
};

object transformer {
	phases BS;
	from nodeT5057910268;
	name T5057;
	to nodeS1806-15-003T5057;
	configuration T10633transformer_configuration360401;
};

object triplex_node {
	phases BS;
	power_12 100;
	name S1806-15-003;
	parent nodeS1806-15-003T5057;
	nominal_voltage 120;
};

object overhead_line {
	phases BN;
	from node1806-14-023912729;
	name 841847;
	to node957811841847;
	length 467;
	configuration 841857line_configuration30301;
};

object overhead_line {
	phases BN;
	from node957811841847;
	name 957811;
	to node1806-14-001957811;
	length 467;
	configuration 841857line_configuration30301;
};

object transformer {
	phases BS;
	from node1806-14-001957811;
	name 1806-14-001;
	to nodeS1806-14-0041806-14-001;
	configuration T10633transformer_configuration360401;
};

object triplex_node {
	phases BS;
	power_12 100;
	name S1806-14-004;
	parent nodeS1806-14-0041806-14-001;
	nominal_voltage 120;
};

object overhead_line {
	phases BN;
	from node1806-14-001957811;
	name 841848;
	to node841856841848;
	length 911;
	configuration 841857line_configuration30301;
};

object overhead_line {
	phases BN;
	from node841856841848;
	name 841856;
	to node841857841856;
	length 495;
	configuration 841857line_configuration30301;
};

object line_configuration {
	name 841857line_configuration30301;
	spacing 840677line_configuration163801line_spacing163802;
	conductor_N 841857line_configuration30301overhead_line_conductor30306;
	conductor_A 840435line_configuration81901overhead_line_conductor81904;
	conductor_C 840435line_configuration81901overhead_line_conductor81904;
	conductor_B 841857line_configuration30301overhead_line_conductor30306;
};

object overhead_line_conductor {
	geometric_mean_radius 0.00373;
	resistance 3.86;
	name 841857line_configuration30301overhead_line_conductor30306;
};

object overhead_line {
	phases BN;
	from node841857841856;
	name 841857;
	to node1806-14-005841857;
	length 197;
	configuration 841857line_configuration30301;
};

object transformer {
	phases BS;
	from node1806-14-005841857;
	name 1806-14-005;
	to nodeS1806-14-0021806-14-005;
	configuration T10633transformer_configuration360401;
};

object triplex_node {
	phases BS;
	power_12 100;
	name S1806-14-002;
	parent nodeS1806-14-0021806-14-005;
	nominal_voltage 120;
};

object overhead_line {
	phases BN;
	from node1806-14-005841857;
	name 841859;
	to node911411841859;
	length 432;
	configuration 841870line_configuration32601;
};

object underground_line {
	phases BN;
	from node911411841859;
	name 911411;
	to nodeF6029x1911411;
	length 35;
	configuration 924103line_configuration196601;
};

object fuse {
	phases B;
	from nodeF6029x1911411;
	name F6029x1;
	current_limit 9999.0 A;
	to node911412F6029x1;
};

object underground_line {
	phases B;
	from node911412F6029x1;
	name 911412;
	to node911413911412;
	length 13;
	configuration 924103line_configuration196601;
};

object underground_line {
	phases B;
	from node911413911412;
	name 911413;
	to nodeT6030911413;
	length 13;
	configuration 924103line_configuration196601;
};

object transformer {
	phases BS;
	from nodeT6030911413;
	name T6030;
	to nodeS1806-14-011T6030;
	configuration T10633transformer_configuration360401;
};

object triplex_node {
	phases BS;
	power_12 100;
	name S1806-14-011;
	parent nodeS1806-14-011T6030;
	nominal_voltage 120;
};

object underground_line {
	phases B;
	from node911413911412;
	name 910224;
	to nodeT3908910224;
	length 720;
	configuration 924103line_configuration196601;
};

object transformer {
	phases BS;
	from nodeT3908910224;
	name T3908;
	to nodeS1806-14-013T3908;
	configuration T10633transformer_configuration360401;
};

object triplex_node {
	phases BS;
	power_12 100;
	name S1806-14-013;
	parent nodeS1806-14-013T3908;
	nominal_voltage 120;
};

object overhead_line {
	phases BN;
	from node911411841859;
	name 841860;
	to node1806-14-008841860;
	length 130;
	configuration 841870line_configuration32601;
};

object transformer {
	phases BS;
	from node1806-14-008841860;
	name 1806-14-008;
	to nodeS1806-14-0071806-14-008;
	configuration T10633transformer_configuration360401;
};

object triplex_node {
	phases BS;
	power_12 100;
	name S1806-14-007;
	parent nodeS1806-14-0071806-14-008;
	nominal_voltage 120;
};

object overhead_line {
	phases BN;
	from node1806-14-008841860;
	name 841862;
	to node926652841862;
	length 1158;
	configuration 841870line_configuration32601;
};

object overhead_line {
	phases BN;
	from node926652841862;
	name 926652;
	to node841867926652;
	length 1266;
	configuration 841870line_configuration32601;
};

object overhead_line {
	phases BN;
	from node841867926652;
	name 841867;
	to node841868841867;
	length 97;
	configuration 841870line_configuration32601;
};

object overhead_line {
	phases BN;
	from node841868841867;
	name 841868;
	to node1806-14-019841868;
	length 1084;
	configuration 841870line_configuration32601;
};

object transformer {
	phases BS;
	from node1806-14-019841868;
	name 1806-14-019;
	to nodeS1806-14-0141806-14-019;
	configuration T10633transformer_configuration360401;
};

object triplex_node {
	phases BS;
	power_12 100;
	name S1806-14-014;
	parent nodeS1806-14-0141806-14-019;
	nominal_voltage 120;
};

object overhead_line {
	phases BN;
	from node1806-14-019841868;
	name 910683;
	to node841870910683;
	length 293;
	configuration 841870line_configuration32601;
};

object line_configuration {
	name 841870line_configuration32601;
	spacing 840677line_configuration163801line_spacing163802;
	conductor_N 841909line_configuration21601overhead_line_conductor21604;
	conductor_A 840435line_configuration81901overhead_line_conductor81904;
	conductor_C 840435line_configuration81901overhead_line_conductor81904;
	conductor_B 841909line_configuration21601overhead_line_conductor21604;
};

object overhead_line {
	phases BN;
	from node841870910683;
	name 841870;
	to node841880841870;
	length 467;
	configuration 841870line_configuration32601;
};

object underground_line {
	phases BN;
	from node841880841870;
	name 841880;
	to nodeFFRN1-F056x1841880;
	length 63;
	configuration 924103line_configuration196601;
};

object fuse {
	phases B;
	from nodeFFRN1-F056x1841880;
	name FFRN1-F056x1;
	current_limit 9999.0 A;
	to node841881FFRN1-F056x1;
};

object underground_line {
	phases B;
	from node841881FFRN1-F056x1;
	name 841881;
	to node1806-0074841881;
	length 512;
	configuration 924103line_configuration196601;
};

object transformer {
	phases BS;
	from node1806-0074841881;
	name 1806-0074;
	to nodeS1806-14-0091806-0074;
	configuration T10633transformer_configuration360401;
};

object triplex_node {
	phases BS;
	power_12 100;
	name S1806-14-009;
	parent nodeS1806-14-0091806-0074;
	nominal_voltage 120;
};

object overhead_line {
	phases BN;
	from node841880841870;
	name 841871;
	to node841876841871;
	length 421;
	configuration 841870line_configuration32601;
};

object overhead_line {
	phases BN;
	from node841876841871;
	name 841876;
	to node1806-14-015841876;
	length 531;
	configuration 841870line_configuration32601;
};

object transformer {
	phases BS;
	from node1806-14-015841876;
	name 1806-14-015;
	to nodeS1806-13-0031806-14-015;
	configuration T10633transformer_configuration360401;
};

object triplex_node {
	phases BS;
	power_12 100;
	name S1806-13-003;
	parent nodeS1806-13-0031806-14-015;
	nominal_voltage 120;
};

object overhead_line {
	phases BN;
	from node1806-14-015841876;
	name 841877;
	to node1806-14-016841877;
	length 1437;
	configuration 841870line_configuration32601;
};

object transformer {
	phases BS;
	from node1806-14-016841877;
	name 1806-14-016;
	to nodeS1806-13-0021806-14-016;
	configuration T10633transformer_configuration360401;
};

object triplex_node {
	phases BS;
	power_12 100;
	name S1806-13-002;
	parent nodeS1806-13-0021806-14-016;
	nominal_voltage 120;
};

object overhead_line {
	phases BN;
	from node841876841871;
	name 841872;
	to node1806-13-004841872;
	length 1999;
	configuration 841870line_configuration32601;
};

object transformer {
	phases BS;
	from node1806-13-004841872;
	name 1806-13-004;
	to nodeS1806-13-0041806-13-004;
	configuration T10633transformer_configuration360401;
};

object triplex_node {
	phases BS;
	power_12 100;
	name S1806-13-004;
	parent nodeS1806-13-0041806-13-004;
	nominal_voltage 120;
};

object overhead_line {
	phases BN;
	from node1806-13-004841872;
	name 922783;
	to node919001922783;
	length 327;
	configuration 841870line_configuration32601;
};

object underground_line {
	phases BN;
	from node919001922783;
	name 919001;
	to nodeF4162x1919001;
	length 61;
	configuration 924103line_configuration196601;
};

object fuse {
	phases B;
	from nodeF4162x1919001;
	name F4162x1;
	current_limit 9999.0 A;
	to node919002F4162x1;
};

object underground_line {
	phases B;
	from node919002F4162x1;
	name 919002;
	to nodeT4163919002;
	length 853;
	configuration 924103line_configuration196601;
};

object transformer {
	phases BS;
	from nodeT4163919002;
	name T4163;
	to nodeS1806-12-001T4163;
	configuration T10633transformer_configuration360401;
};

object triplex_node {
	phases BS;
	power_12 100;
	name S1806-12-001;
	parent nodeS1806-12-001T4163;
	nominal_voltage 120;
};

object overhead_line {
	phases BN;
	from node919001922783;
	name 919000;
	to node841874919000;
	length 344;
	configuration 841870line_configuration32601;
};

object overhead_line {
	phases BN;
	from node841874919000;
	name 841874;
	to node1806-13-002841874;
	length 289;
	configuration 841870line_configuration32601;
};

object transformer {
	phases BS;
	from node1806-13-002841874;
	name 1806-13-002;
	to nodeS1806-13-0011806-13-002;
	configuration T10633transformer_configuration360401;
};

object triplex_node {
	phases BS;
	power_12 100;
	name S1806-13-001;
	parent nodeS1806-13-0011806-13-002;
	nominal_voltage 120;
};

object overhead_line {
	phases BN;
	from node841867926652;
	name 841863;
	to node933779841863;
	length 185;
	configuration 841870line_configuration32601;
};

object underground_line {
	phases BN;
	from node933779841863;
	name 933779;
	to nodeF12263x1933779;
	length 10;
	configuration 924103line_configuration196601;
};

object fuse {
	phases B;
	from nodeF12263x1933779;
	name F12263x1;
	current_limit 9999.0 A;
	to node933781F12263x1;
};

object underground_line {
	phases B;
	from node933781F12263x1;
	name 933781;
	to nodeT12264933781;
	length 370;
	configuration 924103line_configuration196601;
};

object transformer {
	phases BS;
	from nodeT12264933781;
	name T12264;
	to nodeS1806-11-003T12264;
	configuration T10633transformer_configuration360401;
};

object triplex_node {
	phases BS;
	power_12 100;
	name S1806-11-003;
	parent nodeS1806-11-003T12264;
	nominal_voltage 120;
};

object overhead_line {
	phases BN;
	from node933779841863;
	name 933778;
	to node981937933778;
	length 960;
	configuration 841870line_configuration32601;
};

object overhead_line {
	phases BN;
	from node981937933778;
	name 981937;
	to node841864981937;
	length 320;
	configuration 841870line_configuration32601;
};

object overhead_line {
	phases BN;
	from node841864981937;
	name 841864;
	to node841865841864;
	length 1021;
	configuration 841870line_configuration32601;
};

object overhead_line {
	phases BN;
	from node841865841864;
	name 841865;
	to node1806-10-002841865;
	length 1232;
	configuration 841870line_configuration32601;
};

object transformer {
	phases BS;
	from node1806-10-002841865;
	name 1806-10-002;
	to nodeS1806-10-0021806-10-002;
	configuration T10633transformer_configuration360401;
};

object triplex_node {
	phases BS;
	power_12 100;
	name S1806-10-002;
	parent nodeS1806-10-0021806-10-002;
	nominal_voltage 120;
};

object overhead_line {
	phases BN;
	from node841856841848;
	name 841849;
	to node1806-14-003841849;
	length 368;
	configuration 841857line_configuration30301;
};

object transformer {
	phases BS;
	from node1806-14-003841849;
	name 1806-14-003;
	to nodeS1806-14-0011806-14-003;
	configuration T10633transformer_configuration360401;
};

object triplex_node {
	phases BS;
	power_12 100;
	name S1806-14-001;
	parent nodeS1806-14-0011806-14-003;
	nominal_voltage 120;
};

object overhead_line {
	phases BN;
	from node1806-14-003841849;
	name 841851;
	to nodeFFRN1-F120x1841851;
	length 127;
	configuration 841857line_configuration30301;
};

object fuse {
	phases B;
	from nodeFFRN1-F120x1841851;
	name FFRN1-F120x1;
	current_limit 9999.0 A;
	to node841852FFRN1-F120x1;
};

object underground_line {
	phases B;
	from node841852FFRN1-F120x1;
	name 841852;
	to node1806-0288841852;
	length 358;
	configuration 924103line_configuration196601;
};

object underground_line {
	phases BN;
	from node1806-0288841852;
	name 841854;
	to node1806-14-004841854;
	length 784;
	configuration 924103line_configuration196601;
};

object transformer {
	phases BS;
	from node1806-14-004841854;
	name 1806-14-004;
	to nodeS1806-14-0101806-14-004;
	configuration T10633transformer_configuration360401;
};

object triplex_node {
	phases BS;
	power_12 100;
	name S1806-14-010;
	parent nodeS1806-14-0101806-14-004;
	nominal_voltage 120;
};

object underground_line {
	phases B;
	from node912728912726;
	name 912727;
	to nodeT6464912727;
	length 76;
	configuration 924103line_configuration196601;
};

object transformer {
	phases BS;
	from nodeT6464912727;
	name T6464;
	to nodeS1806-23-005T6464;
	configuration T10633transformer_configuration360401;
};

object triplex_node {
	phases BS;
	power_12 100;
	name S1806-23-005;
	parent nodeS1806-23-005T6464;
	nominal_voltage 120;
};

object underground_line {
	phases B;
	from node912726912723;
	name 912724;
	to nodeT6462912724;
	length 100;
	configuration 924103line_configuration196601;
};

object transformer {
	phases BS;
	from nodeT6462912724;
	name T6462;
	to nodeS1806-23-004T6462;
	configuration T10633transformer_configuration360401;
};

object triplex_node {
	phases BS;
	power_12 100;
	name S1806-23-004;
	parent nodeS1806-23-004T6462;
	nominal_voltage 120;
};

object underground_line {
	phases B;
	from node912722912719;
	name 912720;
	to nodeT6459912720;
...